Version 4
SHEET 1 880 680
WIRE 224 16 144 16
WIRE 368 16 288 16
WIRE 480 16 368 16
WIRE 480 48 480 16
WIRE 144 64 144 16
WIRE 368 64 368 16
WIRE 144 160 144 144
WIRE 320 160 144 160
WIRE 368 160 368 128
WIRE 368 160 320 160
WIRE 480 160 480 128
WIRE 480 160 368 160
WIRE 320 176 320 160
FLAG 320 176 0
SYMBOL voltage 144 48 R0
WINDOW 123 0 0 Left 0
WINDOW 39 0 0 Left 0
SYMATTR InstName V1
SYMATTR Value SINE(0 5 50)
SYMBOL diode 224 32 R270
WINDOW 0 32 32 VTop 2
WINDOW 3 0 32 VBottom 2
SYMATTR InstName D1
SYMATTR Value 1N914
SYMBOL polcap 352 64 R0
WINDOW 3 24 56 Left 2
SYMATTR InstName C1
SYMATTR Value 10µ
SYMATTR Description Capacitor
SYMATTR Type cap
SYMATTR SpiceLine V=6.3 Irms=0 Rser=4 Lser=0 mfg="AVX" pn="TAJA106M006" type="Tantalum"
SYMBOL res 464 32 R0
SYMATTR InstName R1
SYMATTR Value 5k
TEXT 110 200 Left 2 !.tran 50m
