Version 4
SHEET 1 880 680
WIRE 48 144 16 144
WIRE 240 144 128 144
WIRE 320 144 240 144
WIRE 240 160 240 144
WIRE 16 192 16 144
WIRE 16 240 16 224
WIRE 160 240 16 240
WIRE 240 240 240 224
WIRE 240 240 160 240
WIRE 320 240 320 224
WIRE 320 240 240 240
WIRE 160 256 160 240
FLAG 160 256 0
SYMBOL MiniSyms4\\voltage- 16 208 R0
WINDOW 123 11 39 Left 0
WINDOW 39 0 0 Left 0
SYMATTR Value2 AC 1
SYMATTR InstName V1
SYMATTR Value 0
SYMBOL res 144 128 R90
WINDOW 0 0 56 VBottom 2
WINDOW 3 32 56 VTop 2
SYMATTR InstName R1
SYMATTR Value 1000k
SYMBOL ind 304 128 R0
SYMATTR InstName L1
SYMATTR Value 5m
SYMBOL cap 256 224 R180
WINDOW 0 24 56 Left 2
WINDOW 3 24 8 Left 2
SYMATTR InstName C1
SYMATTR Value 100n
TEXT 0 312 Left 2 !.ac dec 1000 6k 8k
