Version 4
SHEET 1 880 680
WIRE 144 96 80 96
WIRE 288 96 224 96
WIRE 80 144 80 96
WIRE 80 208 80 176
WIRE 192 208 80 208
WIRE 288 208 288 160
WIRE 288 208 192 208
WIRE 192 224 192 208
FLAG 192 224 0
SYMBOL MiniSyms4\\voltage- 80 160 R0
WINDOW 123 11 39 Left 0
WINDOW 39 0 0 Left 0
SYMATTR Value2 AC 1
SYMATTR InstName V1
SYMATTR Value 0
SYMBOL ind 128 112 R270
WINDOW 0 32 56 VTop 2
WINDOW 3 5 56 VBottom 2
SYMATTR InstName L1
SYMATTR Value 5m
SYMBOL cap 272 96 R0
SYMATTR InstName C2
SYMATTR Value 100nF
TEXT 64 24 Left 2 !.ac dec 1000 6kHz 8kHz
