Version 4
SHEET 1 880 680
WIRE 368 -80 208 -80
WIRE 560 -80 368 -80
WIRE 208 -48 208 -80
WIRE 368 -48 368 -80
WIRE 560 48 560 -80
WIRE 368 64 368 32
WIRE 432 64 368 64
WIRE 368 96 368 64
WIRE 80 144 16 144
WIRE 208 144 208 32
WIRE 208 144 144 144
WIRE 288 144 208 144
WIRE 208 160 208 144
WIRE 16 192 16 144
WIRE 16 256 16 224
WIRE 208 256 208 240
WIRE 208 256 16 256
WIRE 368 256 368 192
WIRE 368 256 208 256
WIRE 560 256 560 80
WIRE 560 256 368 256
WIRE 368 288 368 256
FLAG 368 288 0
SYMBOL MiniSyms4\\voltage- 16 208 R0
WINDOW 123 0 0 Left 0
WINDOW 39 0 0 Left 0
SYMATTR InstName V1
SYMATTR Value SINE(0 20mV 1k)
SYMBOL cap 144 128 R90
WINDOW 0 0 32 VBottom 2
WINDOW 3 32 32 VTop 2
SYMATTR InstName C1
SYMATTR Value 10µ
SYMBOL res 192 144 R0
SYMATTR InstName R2
SYMATTR Value 65k
SYMBOL res 192 -64 R0
SYMATTR InstName R1
SYMATTR Value 100k
SYMBOL res 352 -64 R0
SYMATTR InstName R3
SYMATTR Value 200
SYMBOL cap 496 48 R90
WINDOW 0 0 32 VBottom 2
WINDOW 3 32 32 VTop 2
SYMATTR InstName C2
SYMATTR Value 10µ
SYMBOL MiniSyms4\\voltage- 560 64 R0
WINDOW 123 0 0 Left 0
WINDOW 39 0 0 Left 0
SYMATTR InstName V2
SYMATTR Value 5
SYMBOL EXTRA\\Philips\\NMOSFET\\2N7000 336 144 R0
SYMATTR InstName U1
TEXT 8 312 Left 2 !.tran 4ms
